
#======================================================================
# CRYSTAL DATA
#----------------------------------------------------------------------
data_VESTA_phase_1

_chemical_name_common                  data_3LG_BF4_2x2_Sol.out
_cell_length_a                         8.49044166
_cell_length_b                         8.49057792
_cell_length_c                         40.00000000
_cell_angle_alpha                      90.000000
_cell_angle_beta                       90.000000
_cell_angle_gamma                      120.004389
_cell_volume                           'P 1'
_space_group_name_H-M_alt              'P 1'
_space_group_IT_number                 1

loop_
_space_group_symop_operation_xyz
   'x, y, z'

loop_
   _atom_site_label
   _atom_site_occupancy
   _atom_site_fract_x
   _atom_site_fract_y
   _atom_site_fract_z
   _atom_site_adp_type
   _atom_site_B_ios_or_equiv
   _atom_site_type_symbol
   C001   1.0  0.043701815376  0.302730003708  0.214846897868  Biso  1.000000   C
   C002   1.0  0.295115339983  0.386679383759  0.467414393582  Biso  1.000000   C
   C003   1.0  0.377025188705  0.136067045780  0.214824360927  Biso  1.000000   C
   C004   1.0  0.128707286465  0.220236755579  0.467169502158  Biso  1.000000   C
   C005   1.0  0.377027828256  0.469397063673  0.214894579474  Biso  1.000000   C
   C006   1.0  0.128542963454  0.053471058531  0.466957464155  Biso  1.000000   C
   C007   1.0  0.043696506211  0.469394059549  0.214796414166  Biso  1.000000   C
   C008   1.0  0.295149859164  0.053469868762  0.467115553263  Biso  1.000000   C
   C009   1.0  0.210360970801  0.136067129455  0.214863959764  Biso  1.000000   C
   C010   1.0  0.461706017213  0.220180008721  0.467252742417  Biso  1.000000   C
   C011   1.0  0.210360183568  0.302727573101  0.214851989953  Biso  1.000000   C
   C012   1.0  0.461599527439  0.386608353453  0.467414662034  Biso  1.000000   C
   B013   1.0  0.377443890718  0.386557400984  0.382799716829  Biso  1.000000   B
   F014   1.0  0.225996564534  0.343508271654  0.362781533603  Biso  1.000000   F
   F015   1.0  0.338557545575  0.236136492510  0.402715826662  Biso  1.000000   F
   F016   1.0  0.416301478493  -0.463127599805  0.402748777065  Biso  1.000000   F
   F017   1.0  -0.471047204300  0.429732525049  0.362789024280  Biso  1.000000   F
   C018   1.0  0.044179514528  0.136408994891  0.299130751175  Biso  1.000000   C
   C019   1.0  0.210959090952  0.136621828083  0.298791650009  Biso  1.000000   C
   C020   1.0  0.210930924407  0.469623307717  0.298849379008  Biso  1.000000   C
   C021   1.0  0.044231775863  0.303040447681  0.298859412400  Biso  1.000000   C
   C022   1.0  0.377414612275  0.302981277400  0.298694517143  Biso  1.000000   C
   C023   1.0  0.377342428050  0.469471207432  0.298507306571  Biso  1.000000   C
   C024   1.0  -0.456304394274  0.302734926600  0.214867655312  Biso  1.000000   C
   C025   1.0  -0.205001438635  0.386637836244  0.467159375220  Biso  1.000000   C
   C026   1.0  -0.122972587448  0.136062016321  0.214798726450  Biso  1.000000   C
   C027   1.0  -0.371879541883  0.219969894590  0.467265084659  Biso  1.000000   C
   C028   1.0  -0.122967120444  0.469396960200  0.214815452871  Biso  1.000000   C
   C029   1.0  -0.371695178686  0.053294855410  0.467081277672  Biso  1.000000   C
   C030   1.0  -0.456308267189  0.469394665385  0.214856871178  Biso  1.000000   C
   C031   1.0  -0.204965249762  0.053314440396  0.467000650720  Biso  1.000000   C
   C032   1.0  -0.289636134301  0.136067682787  0.214809522783  Biso  1.000000   C
   C033   1.0  -0.038090498842  0.219992747871  0.467135492879  Biso  1.000000   C
   C034   1.0  -0.289639254179  0.302730887385  0.214803956132  Biso  1.000000   C
   C035   1.0  -0.038268208895  0.386658701334  0.467168770938  Biso  1.000000   C
   C036   1.0  -0.455938074190  0.136519219152  0.298819333417  Biso  1.000000   C
   C037   1.0  -0.289267260755  0.136309483411  0.298927908950  Biso  1.000000   C
   C038   1.0  -0.289412573339  0.469466251241  0.298975413446  Biso  1.000000   C
   C039   1.0  -0.456149102033  0.302948747666  0.298676205562  Biso  1.000000   C
   C040   1.0  -0.122386198435  0.302966933877  0.298931749131  Biso  1.000000   C
   C041   1.0  -0.122828232323  0.469554234415  0.298840612576  Biso  1.000000   C
   C042   1.0  0.043691380710  -0.197268624709  0.214813025018  Biso  1.000000   C
   C043   1.0  0.295067799944  -0.113137156077  0.467156444440  Biso  1.000000   C
   C044   1.0  0.377023704880  -0.363939312413  0.214818051821  Biso  1.000000   C
   C045   1.0  0.128418469358  -0.280006753659  0.467096069069  Biso  1.000000   C
   C046   1.0  0.377027024601  -0.030592852868  0.214815006147  Biso  1.000000   C
   C047   1.0  0.128613846951  -0.446676640393  0.467278859346  Biso  1.000000   C
   C048   1.0  0.043691190505  -0.030602861220  0.214806602931  Biso  1.000000   C
   C049   1.0  0.295020951459  -0.446887901738  0.467279773351  Biso  1.000000   C
   C050   1.0  0.210361971467  -0.363933175128  0.214815267966  Biso  1.000000   C
   C051   1.0  0.461570368324  -0.280173423300  0.467114895437  Biso  1.000000   C
   C052   1.0  0.210358432398  -0.197267032497  0.214778912948  Biso  1.000000   C
   C053   1.0  0.461653970820  -0.113565718169  0.467160380665  Biso  1.000000   C
   C054   1.0  0.044038456748  -0.363800860371  0.299008031218  Biso  1.000000   C
   C055   1.0  0.210715270510  -0.363976205327  0.298742747511  Biso  1.000000   C
   C056   1.0  0.210714621194  -0.030188057674  0.298958147729  Biso  1.000000   C
   C057   1.0  0.044035274362  -0.197075815264  0.299015806830  Biso  1.000000   C
   C058   1.0  0.377375486334  -0.197104257461  0.298940310532  Biso  1.000000   C
   C059   1.0  0.377382510542  -0.030371067745  0.298858788053  Biso  1.000000   C
   C060   1.0  -0.456312247912  -0.197270570821  0.214823101478  Biso  1.000000   C
   C061   1.0  -0.205148796044  -0.113551961407  0.466972704856  Biso  1.000000   C
   C062   1.0  -0.122974961203  -0.363939900898  0.214798588230  Biso  1.000000   C
   C063   1.0  -0.371816784373  -0.280175168137  0.466957093330  Biso  1.000000   C
   C064   1.0  -0.122978377878  -0.030606745718  0.214823109865  Biso  1.000000   C
   C065   1.0  -0.371986415923  -0.446946940285  0.467155403209  Biso  1.000000   C
   C066   1.0  -0.456308109590  -0.030601454215  0.214781634038  Biso  1.000000   C
   C067   1.0  -0.205183455169  -0.446696079206  0.467128330702  Biso  1.000000   C
   C068   1.0  -0.289645346714  -0.363943083056  0.214852667693  Biso  1.000000   C
   C069   1.0  -0.038311482470  -0.280025640242  0.467003522420  Biso  1.000000   C
   C070   1.0  -0.289647384903  -0.197275952452  0.214805341748  Biso  1.000000   C
   C071   1.0  -0.038117844363  -0.113150324381  0.466970196009  Biso  1.000000   C
   C072   1.0  -0.456228675991  -0.364080082383  0.298940124947  Biso  1.000000   C
   C073   1.0  -0.289477561623  -0.363955186137  0.299006313145  Biso  1.000000   C
   C074   1.0  -0.289293224650  -0.030427052145  0.299079957446  Biso  1.000000   C
   C075   1.0  -0.455967788514  -0.197288179189  0.298871884127  Biso  1.000000   C
   C076   1.0  -0.122842478828  -0.197272717789  0.299106118464  Biso  1.000000   C
   C077   1.0  -0.122424587073  -0.030228187476  0.299022312875  Biso  1.000000   C
