data_1_dia_opt_BULK_OPTGEOM

# Generated by MACE CrystalOutToCif.py
# Date: 2025-09-29 12:17:45
# Dimensionality: CRYSTAL
# Space group: 227

_cell_length_a    3.544973
_cell_length_b    3.544973
_cell_length_c    3.544973
_cell_angle_alpha 90.000000
_cell_angle_beta  90.000000
_cell_angle_gamma 90.000000

_symmetry_space_group_name_H-M  'P 1'
_symmetry_Int_Tables_number     1

loop_
_symmetry_equiv_pos_as_xyz
  'x, y, z'

loop_
_atom_site_label
_atom_site_type_symbol
_atom_site_fract_x
_atom_site_fract_y
_atom_site_fract_z
C1       C      0.125000     0.125000     0.125000
C2       C     -0.125000    -0.125000    -0.125000
